26
 energy: -54.604212359211 gnorm: 0.038191608558 xtb: 6.2.3 (830e466)
N         5.78937873279873    2.95112856689069   -0.38074137492719
N         7.66198654306195    0.29071476782834   -1.15426580605398
N         2.31216672546078    0.44144391887147    0.08881799584928
N         4.78495144475710   -1.46677667645325    1.01901230843155
C         6.76146084860835    3.38819920424473   -1.38093359862856
C         8.29919304786002    1.51494659347326   -0.78912822040761
C         4.63048815732995    3.20755343300169   -0.94164062574416
C         7.81787860626511   -0.64644358029430   -0.08878900556628
C         7.85717016347017    2.65431238689985   -1.30170683212093
C         6.29139345277978    4.25150184603051   -2.52588265671665
C         9.20494755470795    1.10002322344026    0.23736039172865
C         5.11742655212318    3.91406915286067   -2.07147600187328
C         8.92141006255297   -0.07886211770272    0.62270814793764
C         3.46980020661666    2.52242414757670   -0.59024153901734
C         6.96916371599732   -1.62886970435511    0.11498928595550
C         2.89147280761348    1.56905294611773   -0.09619659443112
C         5.85887664267832   -2.25004052032110    0.39962254441835
C         2.25498381060838   -0.54329457476641    0.78793636084096
C         3.73664386543745   -2.25118049517383    0.92023361926870
C         2.37607866430233   -1.80658970401798    1.16007948416208
C         0.64564042757078   -3.27002274543283    2.46266375102357
C         5.55678539851591   -3.70641793848658   -0.00038892301374
C         1.43059304300732   -2.58922607454040    1.84360952880173
C         4.34883680486191   -3.41180879043437    0.35945852333509
H        -0.05226521125176   -3.84033959328453    3.01249610422199
H         6.81373793226244    0.31220232802561   -1.70759686747352
