20
 energy: -42.001916527143 gnorm: 0.000706512291 xtb: 6.2.3 (830e466)
C         4.59256609314354    0.02079764938647    0.00000423153161
C         5.75304519060544   -0.50956920781751   -0.00001343141858
C         5.97451329842613   -1.87400128157980   -0.00001411288677
C         7.04454258713901   -2.74890254323901   -0.00001245124763
C         6.92630653160662   -4.01948834613495    0.00000485097542
C         5.83579820223925   -4.79497254134844    0.00001175638485
C         4.68272068805058   -4.02335476558339    0.00000590774274
C         3.44624896368010   -4.73763739004505    0.00000523788191
C         3.53969461956479   -6.12236038907198    0.00001068819890
C         2.32098974900043   -6.67543171132402    0.00000375360622
C         1.16058916676298   -6.14490018834821   -0.00001373381782
C         0.93921874926035   -4.78044909304665   -0.00001406957507
C        -0.13071900498967   -3.90544024771383   -0.00001236526235
C        -0.01233180029163   -2.63486673898199    0.00000502909690
C         1.07825789843809   -1.85947308665560    0.00001187092872
C         2.23116577300760   -2.63135476912897    0.00000580273731
C         3.46762227372344   -1.91706420871542    0.00000500417517
C         3.37390685595996   -0.53236823542766    0.00000989139992
C         4.70984768111721   -2.60407122756012   -0.00000197043193
C         2.20401648355581   -4.05059167766387   -0.00000189001952
