32
 energy: -64.446637717188 gnorm: 0.000940041562 xtb: 6.2.3 (830e466)
C         4.80525549417052   -2.51391848181858   -0.45166637208448
C         3.57738537489210   -1.76724525470379   -0.42139843867444
C         2.36803135091179   -2.35357083188385   -0.72353340579291
C         2.39312282819118   -4.78081357278197    0.16892372042001
C         3.59442223454019   -4.51072092749730    0.08687307257470
C         4.79818050197725   -3.89470397729054   -0.12985458017183
C         6.09117343358611   -4.54712861706834    0.02398338923953
C         7.26111001767844   -3.77572682368531   -0.15583128913256
C         7.24474548975752   -2.41825327914498   -0.45215299454184
O         5.91081038611857   -1.83442881345487   -0.59077627942292
N         1.19029205346844   -1.89174412351781   -0.27141451312780
C         0.09399674533645   -2.70458870681787   -0.24184940986821
C         0.05797006876525   -4.07594329370203   -0.13384803238791
C         1.06301004220280   -5.03400473664623    0.09088533188559
C         2.38434362758170    0.18114538257253    0.33874946963905
C         1.08590596374981   -0.56938025642212    0.34054325031723
C         3.54885961972318   -0.39575843932848    0.04694602696971
O         8.14347830027419   -1.62939673420254   -0.61604865569264
C         6.14849819474222   -5.87204148989986    0.33375299205023
F         2.47164321078049   -7.83082030235669    0.68775792683251
F         5.07792924537651   -6.67800216209055    0.51250174901281
F         7.26487277291645   -6.58457252045521    0.46882153967043
H         2.29979810247057   -3.18628179488157   -1.40043035266766
H         3.37826868650437   -7.59793654294258    0.67408190145014
H         8.22418598502146   -4.24407323268404   -0.05222638592276
H        -0.84935735605231   -2.17410161809615   -0.21740277166587
H        -0.94330644112327   -4.48620108621702   -0.15490715146910
H         0.74528113546959   -6.05846990089548    0.22743868918356
H         2.31930043226838    1.21469466849036    0.63857167706520
H         0.74676868034856   -0.68836786770700    1.37952894018873
H         0.31296487124366    0.00870225122751   -0.18647783679272
H         4.48568894710433    0.13343308588701    0.10507879292707
