18
 energy: -25.474386102022 gnorm: 0.000091919653 xtb: 6.2.3 (830e466)
C        -0.11040101217206   -0.62738138315536    0.00000000000016
C        -0.11040101545231   -2.03131861505014    0.00000000000016
C         1.06912149576743   -2.72125305450411   -0.00000000000022
C         2.30387333732317   -2.03919096867537   -0.00000000000031
C         3.53862517616452   -2.72125307523472   -0.00000000000022
C         4.71814768134004   -2.03131861593490    0.00000000000018
C         4.71814767713898   -0.62738138260116    0.00000000000015
C         3.53862517908080    0.06255307456267   -0.00000000000022
C         2.30387333675352   -0.61950903098138   -0.00000000000029
C         1.06912149615678    0.06255305260277   -0.00000000000019
H        -1.05231712227902   -0.09816677246483    0.00000000000033
H        -1.05231712506004   -2.56053322610147    0.00000000000033
H         1.07427937766706   -3.80230487382288   -0.00000000000014
H         3.53346727236204   -3.80230489049362   -0.00000000000013
H         5.66006379831480   -2.56053316181108    0.00000000000035
H         5.66006379638788   -0.09816683554339    0.00000000000032
H         3.53346728041220    1.14360488834764   -0.00000000000014
H         1.07427937009419    1.14360487086134   -0.00000000000011
