21
 energy: -30.171131113380 gnorm: 0.000582053220 xtb: 6.2.3 (830e466)
N         4.73554743094104   -6.85802578741122    0.02246014262162
C         4.14529048630013   -5.87295471510930    0.01522428271007
C         3.41778368453233   -4.66850254580407    0.00561368519412
C         4.06463124115243   -3.44436554659175    0.19095924450502
C         3.35306231627442   -2.26832168096644    0.18123034474756
C         1.96046345830360   -2.26044000009322   -0.01581636382743
C         1.32296045564822   -3.50023554852640   -0.20215910293961
C         2.03465701668611   -4.67608567631953   -0.19072030329104
N         1.25422969594162   -1.09318584252827   -0.02591586601541
C         1.92257423483339    0.18276000059999   -0.09818663912220
C        -0.18666358705639   -1.09155059787371    0.03396974622593
H         5.13329669098409   -3.42728834416814    0.34981618107249
H         3.88316217461395   -1.34486534627315    0.34786158990795
H         0.26039534667038   -3.54363198845488   -0.37700423874957
H         1.52530367917873   -5.61691098236233   -0.34176405477740
H         2.74664666384608    0.14324708193565   -0.81285688134309
H         2.31588029216662    0.49482416323855    0.87657526252912
H         1.21796871528186    0.93752851090467   -0.44287976710800
H        -0.54082167154137   -1.83473155159758    0.75006626273660
H        -0.63769856419220   -1.30111787152330   -0.94308178237940
H        -0.53060976056562   -0.11495573107500    0.36976825730266
