14
 energy: -16.833079442622 gnorm: 0.000830688179 xtb: 6.2.3 (830e466)
C         4.06495932678324    0.36397216736590   -0.15513755949627
C         2.74626817901947    0.22152012126656   -0.03791035444799
C         2.06753074389012   -1.04361138427949   -0.12858111393935
C         0.73525345756457   -1.17651156530389   -0.01890082827803
C        -0.01374444663820   -2.41009663577782   -0.10371335585659
C         0.48934939713631   -3.63494184468964   -0.24450655481315
H         4.54419375528703    1.32500120544042   -0.08425395429768
H         4.70996397578365   -0.48193011522192   -0.32852888156251
H         2.12214691482129    1.08936537062949    0.13571311364721
H         2.69256318178147   -1.90915515930432   -0.29797045596337
H         0.14262803506835   -0.28414335648858    0.14285126684177
H        -1.08947166303861   -2.29528037738733   -0.04541723292000
H         1.54782107850945   -3.82140905092978   -0.30935519382412
H        -0.14869193596814   -4.49965937531962   -0.30356889508991
