5
 energy: -10.246512798111 gnorm: 0.000892981769 xtb: 6.2.3 (830e466)
C         2.08660745466331    0.24272318410624   -0.33521578295456
C         0.95886358337120   -0.55748039338689   -0.41930588284738
C         2.53265055865232   -1.06972323798278   -0.68223388225837
C         1.82948508869602   -2.06863386773054   -0.03074339427616
C         0.66034331461715   -1.83552568500603   -0.80277105766353
