12
 energy: -24.614947160617 gnorm: 0.000507301520 xtb: 6.2.3 (830e466)
O         2.28668629083002    0.00027257126119    0.00000009500846
C         2.29120189757058   -1.20467505575963   -0.00000003948851
N         3.46452378501393   -1.93841319138671   -0.00000004206625
C         3.49131529943377   -3.30055286093778   -0.00000004075058
C         2.36263626629753   -4.02805066079988   -0.00000000625471
C         1.06688416608308   -3.36920045581721   -0.00000004861856
O        -0.01300751851573   -3.90960126684621    0.00000002507570
N         1.15778153331542   -1.97513650653536   -0.00000004327124
H         4.47231195187486   -3.75299999129662    0.00000001951249
H         2.37591280353643   -5.10321849782929    0.00000006758096
H         0.27893633155622   -1.46871677905774    0.00000000667488
H         4.32048719300391   -1.40211730499476    0.00000000659734
