4
 energy: -10.017363954018 gnorm: 0.000606372669 xtb: 6.2.3 (830e466)
P         2.02531582479035   -0.80051287053498    0.00010577885500
P        -0.35910092934647   -1.07000267890003    0.00010631182698
P         0.63723151705872    0.79927109441758   -0.00010600576213
P         1.02855358749740   -2.67015554498257   -0.00010608491985
