15
 energy: -27.899929169764 gnorm: 0.000790417361 xtb: 6.2.3 (830e466)
N         1.06501610146602    0.08612054659645    0.06172312445761
C         1.18906145988417   -1.24692063763009   -0.05693036030793
C         2.43202955803677   -1.90468747724918   -0.02445823317984
C         2.39710946216313   -3.30529425308140   -0.14251759992611
N         1.29235990700742   -4.03762537345753   -0.28122761040860
C         0.19779113539423   -3.30135635036188   -0.29800574096760
N         0.08622031458350   -1.98631086351620   -0.19762941668582
N         3.69947005133194   -3.70553323161490   -0.08536853815815
C         4.44148521080611   -2.56551365052579    0.05976244549295
N         3.73282483876187   -1.48203033069933    0.09980883629839
H         1.89261620762733    0.65146891533143    0.10719790934968
H         0.15393271566748    0.49946365281163   -0.01811311034578
H        -0.73330738083595   -3.84080716654738   -0.40996123978194
H         5.51133688580818   -2.58602951372289    0.13199875953627
H         4.03132353229781   -4.65336426633296   -0.14025922537312
