75
 energy: -163.554583528969 gnorm: 0.000748764470 xtb: 6.2.3 (830e466)
Zn        6.08586363146004    0.04390236299424    0.05556735196685
N         6.10378047054439   -1.97937509962203   -0.06579165186378
N         4.05911481929451    0.02716006432011    0.09784405598783
N         8.11250103177486    0.05789286355365    0.03810853687760
N         6.06821269161860    2.06843258233300    0.15243320132426
C         5.02036534451190   -2.79318769110301   -0.15318600896799
C         7.19998578616939   -2.77520942523609   -0.18888907936040
C         3.26016927490572   -1.07092416231951    0.11704189862041
C         8.93166066847482   -1.02818115551259    0.03421396870858
C         3.24202819492215    1.10643172544586    0.23180583120221
C         8.91353580407551    1.14918835327476    0.14369465853669
C         4.96956488402563    2.87056661619493    0.15003648723983
C         7.14973172977812    2.88892000431845    0.11243892715938
C         3.69155122990335   -2.38840379472105   -0.03136580033278
C         8.52673833244333   -2.35463468642905   -0.10717554585947
C         3.64510314296178    2.44120863676608    0.22262879385845
C         8.48104569112718    2.47500380248114    0.14036884015839
C         5.44095933163679   -4.14729622540369   -0.38825722676819
C         6.79335142482006   -4.13625133822680   -0.41008749831364
C         1.89162641265858   -0.67885319144413    0.31450138523499
C        10.29814073427920   -0.61000642196689    0.19082335886699
C         1.88015395805305    0.67187795091897    0.38455622962994
C        10.28682967247876    0.74085030847514    0.25904315644800
C         5.37098414630858    4.24818386055453    0.06184690153530
C         6.72328996292741    4.25940305765116    0.03670837640912
C         2.65632288141122   -3.44692483422146   -0.05250535185299
C         9.57822189023906   -3.39093138501627   -0.17395378285712
C         2.59151303145579    3.47487229278184    0.29604891437855
C         9.52128539877202    3.52834777291889    0.15922553725915
C         1.71195082825738   -3.52029734064362   -1.07445721550192
C         9.65415449885015   -4.39949941850261    0.78396023887504
C         2.59247814838381   -4.40932146915833    0.95353724638959
C        10.52411973247506   -3.39302123958914   -1.19655514511299
C         2.54280805221369    4.37878101184499    1.35452043568177
C         1.61280289526264    3.57561703734547   -0.68995183558248
C        10.41536400457579    3.67472637371162   -0.89998924537401
C         0.73788806805955   -4.51292509957804   -1.09995006891432
C        10.66036712365414   -5.34563988707711    0.67275298662344
C         1.62655898799168   -5.40983791786827    0.94877993815521
C        11.48304527640889   -4.39316969589981   -1.21083773494495
C         1.52745967359390    5.32134703341637    1.37613903662291
C        10.61559219156465    5.40526757536762    1.25225946075269
C         0.64812041843315    4.56280063380245   -0.56856020941232
C        11.39514145177656    4.66164929233473   -0.89957384623919
C         0.69398419417358   -5.46292622240111   -0.08337937325931
C        11.49641599261174    5.53244731004776    0.18184247545007
H         4.79077296702100   -4.98787744368564   -0.53351273224530
H         7.45498331500027   -4.96329948991796   -0.57608845567832
H         1.05616342763142   -1.34558019325585    0.40234144900488
H         1.03645556494386    1.31437119951899    0.54156870963453
H        11.14468448729797   -1.26454062596046    0.25619536882574
H         4.70587026193372    5.08725975537133    0.00852364235695
H         7.36866675689176    5.11252542033739   -0.04010160016223
F         1.74715648461996   -2.62696395654874   -2.06694226123895
H         8.94850276176369   -4.43216579206199    1.59985468571739
F         3.46922510875348   -4.36587735456012    1.96038044418083
H        10.49890773872293   -2.63662944271780   -1.96609730098437
H         3.27497613106216    4.33359901167410    2.14546525438306
H        11.12524322195089    1.39659010444188    0.39140780855653
H         1.61679454391002    2.90348972116907   -1.53415934434158
F        10.32371321453916    2.85968942725285   -1.95443291531342
F        -0.15077228315005   -4.56037583365899   -2.09374229433207
F         1.58814624359821   -6.31488296231285    1.92803311503491
F        12.23390097028873    4.77935411160956   -1.93023681305081
F        -0.23524411851912   -6.41757014099626   -0.09809503903010
F        12.43086024471501    6.48203213486668    0.19219892632099
C         9.64304419487776    4.41110525785210    1.23069488476390
F         8.81789026000973    4.29535085801954    2.27477023367657
F        10.70917067931826    6.23433277280007    2.29330767006633
N        11.55485827486207   -5.34833228629109   -0.30016086576284
H        10.75600012513820   -6.14318202620314    1.39783563694285
H        12.23303926646736   -4.43329206341407   -1.98982779427866
N         0.60022271801236    5.41631526518407    0.43963373146873
H         1.45156440937157    6.03821069499026    2.18321827317178
H        -0.12810008235205    4.67647305558325   -1.31367402712231
