38
 energy: -61.632320306860 gnorm: 0.000368057048 xtb: 6.2.3 (830e466)
N         0.36160587262725    1.97925278452531   -0.00059704020206
N        -2.06857644612773    0.38452956205915    0.01001646831294
N         2.05752179579415   -0.38119958375483   -0.01533551465371
N        -0.37277571944520   -1.97588079609365   -0.01052898420011
C        -0.55085668289613    2.97309510031717    0.00622393818355
C        -2.62755439659940    1.62391880004894    0.01858283627485
C         1.56985941335264    2.57938168449879   -0.00647245496460
C        -3.03521844507935   -0.57161419682073    0.01347455911530
C        -1.93179586691688    2.82254619427199    0.01605180993735
C         0.10304607063438    4.27357886609977    0.00346770424579
C        -4.04163184944172    1.44397983159054    0.02900717825771
C         1.42619852360126    4.02783363624968   -0.00447800155889
C        -4.29046083589636    0.10389614120537    0.02591713347229
C         2.80507872579024    1.94347149404817   -0.01200826598376
C        -2.81604035189660   -1.94007563800133    0.00476349287429
C         3.02423406225826    0.57492960479966   -0.01497698738470
C        -1.58110855297985   -2.57612205598042   -0.00735431227748
C         2.61656951035713   -1.62061330238692   -0.02085483901831
C         0.53965194976962   -2.96957624889794   -0.02080965093876
C         1.92080213181635   -2.81929532075114   -0.02462265154202
C         4.27952761538637   -0.10064954927752   -0.01960015939450
C        -1.43743155497251   -4.02460653735043   -0.01717523553857
C         4.03071618084838   -1.44066199110088   -0.02320853521128
C        -0.11421542049902   -4.26999544524399   -0.02566907275108
H        -2.52208129127858    3.72799611904573    0.02243797924882
H        -1.07301637380734    0.19962436769516    0.00186012174296
H        -0.41139001861069    5.21551969176194    0.00720386610662
H        -4.75878416399517    2.24185245789945    0.03763984401587
H         2.24452785419856    4.72235244766488   -0.00883589148601
H        -5.24623744671046   -0.38338231129694    0.03159412407313
H         3.68096241300284    2.57679800022180   -0.01408981602538
H        -3.69196259980255   -2.57337209055296    0.00762960719511
H         2.51103147979532   -3.72476361745751   -0.03089467935972
H         5.23505577500384    0.38717478444017   -0.01992650837985
H        -2.25561871778323   -4.71921498879218   -0.01731575658005
H         4.74743799144608   -2.23897389954637   -0.02699708019765
H         0.40038673685039   -5.21187930335961   -0.03445163201856
H         1.06195263220570   -0.19630469177835   -0.01228759338953
