78
 energy: -121.178910382102 gnorm: 0.000160869002 xtb: 6.2.3 (830e466)
N        -2.08541634490893   -0.02322902994628    0.05888168476362
N         2.09313189694485    0.02329603521890    0.03904001849083
N        -0.01925801013963    2.02554086986709    0.02850259567171
N         0.02545119176994   -2.02548759162293    0.02816844982720
C        -2.87395805272134    1.08526372404131    0.00584054478245
C        -2.84929720058250   -1.14886387007735    0.00600067626331
C         2.88126560975487   -1.08513283512645   -0.02086588891798
C         2.85660861209757    1.14887777607816   -0.02033909707935
C        -2.38839731434705   -2.46546687796641    0.05039095779211
C        -2.44231573037646    2.41174837894211    0.05020645943010
C         2.39525747653131    2.46505218418564    0.02363972841761
C         2.44916074431747   -2.41121370055882    0.02265001600679
C        -1.10728388706301    2.82368423665672    0.09588113862005
C        -1.04453557917724   -2.84765043305659    0.09573487250194
C         1.05187984251224    2.84697794628979    0.08284081373653
C         1.11460915191232   -2.82290073210139    0.08203752027934
C        -4.21914674786019    0.63479004706769   -0.11112451589129
C        -4.20410376606309   -0.72823249104125   -0.11099720801962
C         4.22585814350258   -0.63470651146720   -0.14545327819736
C         4.21081609455630    0.72831947035685   -0.14510583134076
C        -3.49018834694378    3.45454347459287    0.05210792187439
C        -3.41289924766032   -3.53122861979603    0.05254318395462
C         3.49534367597903   -3.45588323701817    0.00257598558361
C         3.41801742845611    3.53267250951516    0.00411588700363
C        -0.71485338117055    4.21559659843364    0.23907502280763
C        -0.62120169955613   -4.23050518683590    0.23861019579318
C         0.63133213741025    4.23016209961553    0.23004616190407
C         0.72497133123405   -4.21512637317956    0.22910868958597
C        -3.56721743195025    4.38347838976366   -0.98147825605155
C        -4.33707636485987   -3.61825647028233    1.08963403294947
C        -3.46952334283019   -4.46168936727416   -0.98098915294049
C        -4.41626482028973    3.52110982019129    1.08901613562169
C         4.34983693274504    3.63857239429816    1.03235757246384
C         3.56154345412725   -4.36757233869879   -1.04697201154170
C         4.42948312135475   -3.54139969157172    1.03060924917654
C         3.46415802487809    4.44595153315484   -1.04512487995934
C        -5.29322805262776   -4.61730348544135    1.09463738589170
C        -4.54995898587282    5.35637059830376   -0.97749909760779
C        -5.39434873481468    4.49869168616003    1.09377302192818
C        -4.43043904120160   -5.45614252112146   -0.97676726122351
C         5.30366119675886    4.63984682993926    1.01307934292313
C         4.54262573680779   -5.34190085665337   -1.06808256338838
C         4.42334709263350    5.44185026966719   -1.06571871628891
C         5.40532715557241   -4.52121262077486    1.01080777557500
C        -5.46496258644798    5.41785406541770    0.06030375125944
C        -5.34363209722336   -5.53786891852732    0.06123336909610
C         5.34440857787486    5.54260818874465   -0.03635034367496
C         5.46591853544183   -5.42249231859661   -0.03893709463804
H        -1.07438333544497   -0.01213220541921    0.10730521062625
H         1.08236117606866    0.01219380204394    0.09258615527091
H        -5.07608183243301    1.27325441609050   -0.19898938786865
H        -5.04673151970553   -1.38548280000014   -0.19873019451218
H         5.05262755752860    1.38608017040284   -0.23684689422647
H         5.08198627042282   -1.27367106784529   -0.23753910632099
H        -1.39050403542678    5.04074084710457    0.35209638192361
H        -1.27829894047609   -5.07048696140797    0.35172389987849
H         1.29075881345836    5.06956857087935    0.33389334422760
H         1.40293695737801   -5.03967891252204    0.33258101420689
H        -4.29090753306053   -2.90517729762661    1.90014708904024
H        -2.85601574770071    4.33085633144542   -1.79318400549716
H        -4.35443054942109    2.80927998087695    1.89958270837020
H        -2.75984357992075   -4.39332925487231   -1.79285443053611
H         2.84296974419637   -4.30009309021239   -1.85108915399101
H         4.31189549873646    2.93884794764652    1.85487926536384
H         4.37615188608930   -2.84296831466240    1.85337563519172
H         2.74742131051448    4.36278059215002   -1.84941201967200
H        -6.00120029816057   -4.67854636210893    1.90840321102427
H        -4.60238619262765    6.06962738923208   -1.78717300447781
H        -6.10366206255957    4.54425734565617    1.90739745459414
H        -4.46721081260049   -6.17041004356887   -1.78641236421021
H         6.01738008230859    4.71683479592932    1.82049014373066
H         4.58704807703885   -6.04117515790700   -1.89038698762792
H         4.45237916750321    6.14220981412524   -1.88778759222248
H         6.12074678597092   -4.58257626213672    1.81805137691859
H        -6.09188375635224   -6.31663045449551    0.06500801659295
H        -6.23030793260546    6.17982227953362    0.06388666497438
H         6.22977038361488   -6.18584415864892   -0.05462511214713
H         6.09109801918052    6.32276501254837   -0.05162228384335
