77
 energy: -120.515087902787 gnorm: 0.000929772903 xtb: 6.2.3 (830e466)
Mg        6.19907552241059    0.00334309850623    0.00000001543216
N         4.13485695274306   -0.00446213841118   -0.00000000928894
N         6.19065403346874    2.06775208164895   -0.00000011220340
N         6.20620200267115   -2.06099731475268   -0.00000002547908
N         8.26331894156310    0.01102394778081   -0.00000006863635
C         3.66903861892139    2.51400618200982   -0.00000000512347
C         3.68808666519414   -2.52609212057039   -0.00000001621681
C         8.70939508555557    2.53280371659796    0.00000009165341
C         8.72815524919517   -2.50746692352466    0.00000005663320
C         3.32828285379704    1.12423855720385   -0.00000000463626
C         3.33657032104124   -1.13908685858893   -0.00000000835424
C         5.05602216665956    2.86631816782166   -0.00000005512572
C         5.07741164196126   -2.86767668274805   -0.00000002809515
C         7.31970559986860    2.87392978542007    0.00000002521239
C         7.34103756394828   -2.85903001232602    0.00000002070422
C         9.06133171284119    1.14591885958075   -0.00000002426964
C         9.06991333313645   -1.11783473127052   -0.00000002867454
C         2.56249197148814    3.61157834166272    0.00000001578599
C         2.59009746966747   -3.63171197814646   -0.00000001419018
C         9.80723063061733    3.63911476820448    0.00000011802583
C         9.83436261216945   -3.60548775242379    0.00000006597994
C         1.98700926013237    0.65538133975618    0.00000000191995
C         1.99180488841829   -0.68022416057670   -0.00000000057541
C         5.51557589895507    4.21088008268312   -0.00000002144026
C         5.54639098491342   -4.20894444684985   -0.00000001465623
C         6.85127283318177    4.21514251235913    0.00000003005324
C         6.88208581943352   -4.20363062271710    0.00000001586808
C        10.40598828276937    0.68709077447301   -0.00000000808759
C        10.41107119669455   -0.64862130105474   -0.00000001177819
C         1.16459438996983    3.40049091973759    0.00000000776344
C         1.19096473829742   -3.42982927073196   -0.00000000174827
C         2.76587159366559    5.01034056121632    0.00000000475141
C         2.80346591515523   -5.02901802699602   -0.00000000350837
C        11.20620891702592    3.43651854751728    0.00000002532962
C         9.63310160812477   -5.00475472962458    0.00000001750971
C         9.59528778477636    5.03677909548207    0.00000003316681
C        11.23173931556874   -3.39236786857446    0.00000001265283
C         0.16926652108254    4.36427670861463   -0.00000000153340
C         0.20207634290775   -4.40027630884437    0.00000000376976
C         1.79760699311622    6.00130945949964   -0.00000000261974
C         1.84170360206948   -6.02631807341690    0.00000000391088
C        12.19621961134833    4.40579236506109   -0.00000002900499
C        10.60348313860795   -5.99360839784502   -0.00000001060137
C        10.55810090424639    6.03305512077658   -0.00000001989031
C        12.22917310537054   -4.35398055514358   -0.00000001624586
C         0.45416397210657    5.70931502704490   -0.00000000441454
C         0.49624187384264   -5.74335400546656    0.00000000394746
C        11.90329354080491    5.74908434226100   -0.00000002918317
C        11.94648794488074   -5.69941532986575   -0.00000001449137
H         1.03709510695328    1.11109531990146    0.00000000517388
H         1.04464903724034   -1.14225883670030    0.00000000252571
H         5.05606778623279    5.15937165949482    0.00000000965872
H         5.09331303203069   -5.16061129415427   -0.00000000765936
H         7.30608961913643    5.16562398861029    0.00000006354215
H         7.34387203357373   -5.15068010221695    0.00000002692532
H        11.35382535053938    1.14778069007572    0.00000002418678
H        11.36248571402913   -1.10176370324089    0.00000001741324
H         0.70122461553202    2.45104091201727    0.00000000391312
H         0.72208362575359   -2.48306585112304    0.00000000065908
H         3.71349198248978    5.47663374877398    0.00000000124297
H         3.75439333156922   -5.48888820199551   -0.00000000188592
H        11.67395844478176    2.48943211520154    0.00000000924846
H         8.68673708857468   -5.47403803529603    0.00000001069306
H         8.64532919294889    5.49881310887846    0.00000002032899
H        11.69225003224680   -2.44182885608384    0.00000000493911
H        -0.85712736506184    4.02476503569154   -0.00000000408519
H        -0.82654945630877   -4.06767157256736    0.00000000427153
H         2.13256749902110    7.02912792022817   -0.00000000481854
H         2.18332880551012   -7.05195034300425    0.00000000511552
H        13.22441951608071    4.07193984262474   -0.00000004023305
H        10.27086794082407   -7.02223872949280   -0.00000001551044
H        10.21755648154563    7.05907681654852   -0.00000003003595
H        13.25475553185873   -4.01218452102359   -0.00000002198307
H        -0.31014462312886    6.46965366311643   -0.00000000750747
H        -0.26289970878790   -6.50887290006880    0.00000000421547
H        12.66308162661006    6.51394263203106   -0.00000004033807
H        12.71208583181944   -6.45843925867637   -0.00000001999323
