17
	Energy:      50.6556387
C         -5.49804        3.14425       -0.05205
C         -5.25528        1.71894        0.05930
C         -3.89380        1.21331        0.06308
H         -6.08626        1.03618        0.18825
C         -2.76163        2.13001       -0.06160
H         -3.72562        0.14801        0.17448
C         -2.99580        3.58675       -0.22820
C         -4.38662        4.06304       -0.23074
H         -4.59041        5.12284       -0.32966
H         -6.50268        3.53154        0.06778
C         -1.49013        1.71826       -0.02920
C         -1.85853        4.48170       -0.37870
C         -0.41952        2.72825       -0.15644
N         -0.57156        4.00725       -0.31963
H         -2.00224        5.54543       -0.53100
H          0.60489        2.32457       -0.10249
F         -1.10914        0.43686        0.12227
