16
 energy: -26.648879087129 gnorm: 0.000158720628 xtb: 6.2.3 (830e466)
C         5.79512258235615   -1.39800829453649   -0.00000000000946
C         4.55101021717720   -2.05654907238016    0.00000000001215
C         3.48576384612596   -1.19475447704788    0.00000000000101
C         2.09168612304708   -1.50654163402967   -0.00000000000137
C         1.02643966930262   -0.64474712895244   -0.00000000001134
C        -0.21767262101908   -1.30328803914020    0.00000000000768
C        -0.09559870609136   -2.65604161006636   -0.00000000000177
S         1.54752889835982   -3.16108345308843   -0.00000000000967
S         4.02992126016322    0.45978730753358    0.00000000001065
C         5.67304878095383   -0.04525470109385    0.00000000000267
H         6.74078459501134   -1.90992533096083   -0.00000000001026
H         4.43311575860625   -3.12566067527546    0.00000000001155
H         1.14433409591002    0.42436449700869   -0.00000000001104
H        -1.16333463311605   -0.79137099663448    0.00000000000830
H        -0.86994847210630   -3.39696919294853   -0.00000000000041
H         6.44739860531928    0.69567280161250    0.00000000000129
