31
 energy: -54.128623965645 gnorm: 0.000787859746 xtb: 6.2.3 (830e466)
S        -0.76643174956069    1.81899958415646   -0.44403963352545
O        -2.35709011712167   -0.28911258189251    0.08357698861959
O         2.09041159479829   -1.63460051679309    0.18710979456702
N        -3.42897854858482    1.61663949550884   -0.42464842195946
C        -3.69513489707854   -0.55213572558839    0.12814928544390
C        -4.37273429751296    0.64203364144049   -0.19045630045594
C        -4.35583764775426   -1.72862007883270    0.41568325081994
C        -5.75946132329726    0.67332001427532   -0.22793325676111
C        -2.29810687119436    1.02211913167733   -0.25401683469983
C         4.00925029848510   -0.28433529535244   -0.07693375034288
C        -5.73815058858436   -1.67760235531770    0.37300546848442
C        -6.42198136727981   -0.50383251005381    0.05798979138951
C         4.59509655764898    0.92657011786950    0.28440409408762
C         4.82465190746672   -1.33926760974414   -0.48498883423899
C         2.54465244917228   -0.52287727986532   -0.01464936655523
C         5.96825327370243    1.07754603633459    0.22202491480720
C         6.19438538696878   -1.17945189558624   -0.55969924415653
C         1.67698912008777    0.64412087543208   -0.24601602321825
C         6.76852602464274    0.03160231548359   -0.20853372709306
C         0.35023595815726    0.51089483391726   -0.15714229404437
H        -3.82024567440402   -2.63188178469942    0.65776968720791
H        -6.28207831382842    1.58280791056139   -0.47217150371070
H        -6.30182022559816   -2.57213770085667    0.58904420687252
H        -7.50126076171945   -0.52012410450678    0.03738905192491
H         3.98692742176323    1.74221069366844    0.64576654409645
H         4.35920259696932   -2.27775877171945   -0.74540573585995
H         6.41774274056836    2.01616532641628    0.51149962402858
H         6.81666690142003   -1.99898983153941   -0.88677533524320
H         2.12715412700556    1.58352786586849   -0.52173590165691
H         7.83973495868200    0.15886566022251   -0.26266216744685
H        -0.08735893401729   -0.44083546048336    0.10530562862500
