29
 energy: -46.466036696904 gnorm: 0.000236379467 xtb: 6.2.3 (830e466)
C         8.69801209895701   -4.84147569509718    0.00005142017387
C         7.85103856875951   -5.93742912338769    0.00000288701382
C         6.48374216473590   -5.69492605075803   -0.00004554021010
N         5.95768539774806   -4.48952208616543   -0.00004617372701
C         6.76231965239979   -3.42850902844854   -0.00000304714772
C         8.15252135975992   -3.56965118037531    0.00004808651989
C         6.08789597645953   -2.11584579605866   -0.00001252760468
C         6.78077618526581   -0.90155538375075   -0.00003478746884
C         6.05651160698047    0.27944067747847   -0.00003605904024
C         4.67572703060247    0.22639487296026   -0.00001782993020
C         4.06598232311017   -1.03097302872512   -0.00000203796197
C         2.60112563197055   -1.15533121711321    0.00000341352336
C         1.99895776268477   -2.41464752775289   -0.00001507802614
C         0.61816660807411   -2.48633077719595   -0.00000477723992
C        -0.11414232631556   -1.30792579782324    0.00002394245794
C         0.58028942029090   -0.10673206644313    0.00004305704696
N         1.89628962166831   -0.02526230183568    0.00003158105045
N         4.76158532278880   -2.15799003492895    0.00000162128036
H         9.77098089090259   -4.97356133412140    0.00008483215202
H         8.23751564624230   -6.94472597156595    0.00000799580795
H         5.77353949617658   -6.51244450884222   -0.00006718004209
H         8.80450693086860   -2.71105684677810    0.00008353968785
H         7.85819721914416   -0.86729725604184   -0.00005460277746
H         6.57003448292846    1.23077316242828   -0.00005185023304
H         4.06224383030952    1.11200256823801   -0.00001802872981
H         2.62752372154199   -3.29021606912102   -0.00003121839525
H         0.11664898395560   -3.44383253249481   -0.00002258803589
H        -1.19327613633140   -1.31818447974546    0.00002480180699
H         0.05674052832091    0.84137481346561    0.00005614804880
