34
 energy: -110.128989295132 gnorm: 0.000465885329 xtb: 6.2.3 (830e466)
F         7.69911335899037   -9.17216138762575    0.00001942847358
C         7.04967802437643   -8.01171966529107    0.00002233026886
C         7.80228119886607   -6.81689752834065   -0.00003673777348
F         9.10961658963166   -6.89244976863651   -0.00009652920072
C         7.09196443025962   -5.63613236053037   -0.00002427036173
F         7.74152514829068   -4.32430224219187   -0.00007111183845
C         5.69385827760955   -5.58958380801016    0.00003775944235
B         4.96487549658801   -4.28676687271300    0.00004199887789
C         5.72873429960565   -3.00402477878496    0.00000201392030
C         7.12757968856454   -2.99481837556693   -0.00003964326451
F        10.09899440361351   -4.35063284045505    0.00017012827601
C         7.86936371189080   -1.83371284382816   -0.00005114056984
F         9.17787166773531   -1.79158381786173   -0.00008872499794
C         7.14852859301373   -0.61923251955750   -0.00002013924579
F         7.82900555057082    0.52330315497180   -0.00002291982038
C         5.73750857357892   -0.56447761357175    0.00001502313968
F         5.15020385942302    0.60575623069048    0.00005096976500
C         5.07010388378484   -1.76990462386302    0.00002067770294
F         3.60869600949788   -1.86358993286782    0.00005625328549
C         3.47202110962263   -4.26680120040325    0.00007290609239
C         2.76483856811353   -3.05981452489193    0.00005188055751
F         2.45855130462179    0.19408496948468   -0.00038127201072
C         1.38835842501348   -2.99819894919583    0.00004510109198
F         0.69829066410992   -1.88544838621716    0.00003665162209
C         0.69685754723445   -4.22945534198918    0.00006567105454
F        -0.63287020120102   -4.21141309332005    0.00006411236187
C         1.35500420795221   -5.47879837159452    0.00011403167174
F         0.63510734889445   -6.57254757575373    0.00018195192982
C         2.73267108207197   -5.45430245389384    0.00011595005553
F         2.33820226364426   -8.69840395173969   -0.00092871190130
C         5.00249494066228   -6.80567672544408    0.00009913782224
F         3.54427931251635   -6.67282665044793    0.00019147467975
C         5.63758600802760   -8.02851554423194    0.00009842620199
F         5.01900465282466   -9.18265060632755    0.00018732269128
