30
 energy: -47.893188181514 gnorm: 0.000439067739 xtb: 6.2.3 (830e466)
C         5.10611834612757    0.89159530018048    0.00000000054066
C         3.71152129318674    0.88932139170446   -0.00000000031847
C         5.53923516347751   -0.43404261167258   -0.00000000059715
C         3.28272972511790   -0.43772188507446   -0.00000000008723
C         4.41231898651783   -1.25560576206852    0.00000000040786
C         5.90845731880987    1.99971510905613    0.00000000215641
C         2.90557322230454    1.99481900277153   -0.00000000118666
C         6.84105603496519   -0.85468445849213   -0.00000000232920
C         1.98228730981146   -0.86260647164346   -0.00000000031635
C         4.41454945834861   -2.62369653547706    0.00000000164479
C         5.09933239896107    3.19693631347169    0.00000000440327
C         7.29841122412305    1.60468365911420    0.00000000182584
C         3.71078980478418    3.19467231117196    0.00000000111345
C         1.51691474755504    1.59525714802966   -0.00000000445845
C         7.72964763976155    0.28480071451437   -0.00000000263424
C         6.89487814022186   -2.29868061473119   -0.00000000409685
C         1.08998466764686    0.27397514362088   -0.00000000366209
C         1.93317415295089   -2.30677039331943    0.00000000280192
C         5.77285435010199   -3.11667705175562   -0.00000000009315
C         3.05785946073732   -3.12110370409403    0.00000000480815
H         5.59125005197530    4.16144849911127    0.00000000530701
H         8.06120436264439    2.37306725437892    0.00000000216157
H         3.21572961825126    4.15757529036709    0.00000000149642
H         0.75162001213249    2.36114926907785   -0.00000000531699
H         8.79896417449121    0.11500990075194   -0.00000000317363
H         7.86137035322440   -2.78669641133373   -0.00000000504221
H         0.02122750718465    0.10069824274155   -0.00000000456224
H         0.96827847209285   -2.79793534584851    0.00000000335523
H         5.94181091447103   -4.18612569990399   -0.00000000011099
H         2.89239108802139   -4.19109760464929    0.00000000596334
