48
 energy: -73.323369924718 gnorm: 0.000328093592 xtb: 6.2.3 (830e466)
C        -1.42233306218062   -0.11676685586179   -0.33262706920823
C        -0.76390840850972    0.90279608122155    0.35939274510927
C         0.61068556338501    0.96584374618358    0.36619532711221
C         1.39238172643446    0.01074749770068   -0.29326217242220
C         0.72310869482563   -1.00392553700601   -0.98543778933959
C        -0.65135898422853   -1.06500227372360   -1.01126356997294
N        -2.81299273841475   -0.18373263076896   -0.35088841464340
C        -3.46459722978816   -1.42312729725915   -0.41219377522518
C        -2.97788875630662   -2.51884971621980    0.29955997790663
C        -3.62889122702058   -3.73540888224577    0.23245829843646
C        -4.77427554515270   -3.87764403166045   -0.53367732784824
C        -5.26522489943827   -2.79009821289966   -1.23739559036479
C        -4.61709251906384   -1.57154718617573   -1.18298780774324
C        -3.58135772720256    0.98773255512026   -0.30146383448145
C        -4.75497672300797    1.02552612546078    0.45050710878590
C        -5.51557336417030    2.17769392213791    0.49497340836007
C        -5.11776409831119    3.30793809432505   -0.20021827533570
C        -3.95232846315090    3.27529018862235   -0.94848225540221
C        -3.18896598414060    2.12537345274899   -1.00559325247708
C         2.83417864189050    0.12004944605575   -0.23755879421167
C         3.71590533064695   -0.83378481203132   -0.57513489985297
C         5.15960308252882   -0.72015314366288   -0.50793447656698
C         5.82473883236693    0.50129801977993   -0.36576840885243
C         7.20167727394786    0.56241213366632   -0.30221864630061
C         7.94368324425643   -0.60638297171627   -0.37873715962873
C         7.31397598766672   -1.83201582993588   -0.52780146323559
C         5.93665462230106   -1.87973556796405   -0.59661984953128
Cl        9.66970858139233   -0.53263815115556   -0.29583366420778
H        -1.34216754214552    1.64157391726685    0.89468935673500
H         1.09898966140358    1.76199117537998    0.91039979047229
H         1.28751872880319   -1.74170508872195   -1.53459004763773
H        -1.14583370788797   -1.84713044185026   -1.56872756815507
H        -2.09137190407281   -2.40666649142686    0.90652982463441
H        -3.24362202843956   -4.57625007561907    0.79029539864084
H        -5.28145832921532   -4.82926855607676   -0.58120478632087
H        -6.15533513143399   -2.89282833242116   -1.84047067088268
H        -4.99635777652182   -0.72608971516112   -1.73828400624354
H        -5.06177168208442    0.14722832230545    0.99957140396125
H        -6.42081052078034    2.19523917462584    1.08388325063093
H        -5.71244366969915    4.20782664216159   -0.15984472200954
H        -3.63895365848839    4.14971253496941   -1.49967197520547
H        -2.28616530742492    2.09798256960202   -1.59817915092119
H         3.19751706425154    1.06359257303417    0.14852309882531
H         3.35448321798333   -1.80021762719287   -0.90057551537866
H         5.26048717984345    1.41955077124035   -0.31938925552099
H         7.70362144743740    1.51176040253035   -0.19680041657240
H         7.89975325822764   -2.73587941510127   -0.59108308481654
H         5.44727884868891   -2.83614050228085   -0.71241929309380
