22
 energy: -30.798765610057 gnorm: 0.000211394063 xtb: 6.2.3 (830e466)
C         2.73700307824961   -1.12342630747158   -0.07907721076490
C         2.11466729150126    0.09300157451584   -0.05505190134107
C         0.70627354705879    0.13018570494772   -0.00400429923729
C        -0.06316686939915   -1.00492392376131    0.02280860517168
C         0.54838567955425   -2.27689098774524   -0.00088239781572
C        -0.07876952120343   -3.54127420269412    0.02078342311247
C         0.67663926542260   -4.68571967952527   -0.00808795985784
C         2.08534833088279   -4.66578298606467   -0.06007560694412
C         2.72260024289891   -3.45706672238377   -0.08223263162780
C         1.94937835086971   -2.28546840744628   -0.05213716728104
H         2.67236778623308    1.01820535782082   -0.07404633010598
H         0.22235537264612    1.09671981155321    0.01458618180906
H        -1.14073208525992   -0.93320290163733    0.06215100425211
H        -1.15712621462020   -3.59979578735066    0.06028753929631
H         0.18087606163420   -5.64625587142184    0.00922389442530
H         2.63159474038572   -5.59774568754640   -0.08136107987804
C         4.18547679482754   -1.52390559628782   -0.13088393701115
C         4.17577618018267   -3.07435244251868   -0.13657483551885
H         4.64687600070493   -3.47259693930638   -1.03739597035492
H         4.71590793316325   -3.48017828429881    0.72098434429316
H         4.72598701918474   -1.13184218939104    0.73291126744579
H         4.66641101508254   -1.12434353198638   -1.02581493206719
