11
 energy: -12.462674703054 gnorm: 0.000618637190 xtb: 6.2.3 (830e466)
P         3.94392950553773    1.18282855219396    0.59035706643205
C         2.62781413976931    0.47535494240634   -0.16131753776442
C         5.34097515806557    0.19974147563550   -0.15302012439714
H         5.14735121004375   -0.02371089518319   -1.19906682259035
H         5.46484826517458   -0.73050196520024    0.39924861661212
H         6.26441837185551    0.76968113530019   -0.07253367333287
C         1.22144578919904    0.89100962577880    0.09628102750725
H         2.75434347151250   -0.32822326844710   -0.87882155254503
H         1.18024494642405    1.71475376204540    0.80556922010149
H         0.64568539948832    0.05470831595892    0.49659648485541
H         0.73936374292963    1.20170831951142   -0.83207270487852
