27
 energy: -42.213825262567 gnorm: 0.000487976441 xtb: 6.2.3 (830e466)
N         4.57818482816017   -2.67834444794350    0.00000016936655
C         3.42830477112733   -2.00698950081018    0.00000017697456
C         5.72660298815703   -2.00449211663025    0.00000017365812
C         3.37234771501421   -0.57123652876945    0.00000013350980
C         5.77943956030208   -0.56862076760811    0.00000012490151
C         2.22072208069702   -2.73316624606972    0.00000013990743
C         6.93576124508436   -2.72804241483109    0.00000013016362
C         4.57513747970075    0.12593061123739    0.00000012126496
C         7.04530595824360    0.06532468926722    0.00000003161340
C         2.10510648571542    0.05995622420760    0.00000003970376
C         1.00438403645889   -2.09197479670809   -0.00000005816915
C         8.15070289624666   -2.08420896253544   -0.00000004975972
N        -0.17003792766306   -2.78948047363227   -0.00000017810455
N         9.32663805606203   -2.77916058883316   -0.00000018825502
C         0.96025552650968   -0.67066580650194   -0.00000007178632
C         8.19174216584647   -0.66280742493056   -0.00000006182145
H         2.27843368732597   -3.81076612487494    0.00000017326456
H         6.88039183540091   -3.80576518171843    0.00000016189643
H         4.57395985842404    1.20963375118115    0.00000004892156
H         7.08035943108118    1.14644109652279   -0.00000000012053
H         2.06770340343920    1.14099387944390    0.00000003312819
H        -0.15861512172416   -3.79133727984780   -0.00000008121820
H        -1.04972047627356   -2.31025992299074   -0.00000026130158
H         9.31739263538269   -3.78103983940322   -0.00000009746905
H        10.20527698117380   -2.29802928115746   -0.00000022548594
H        -0.00586692384066   -0.18501478959160   -0.00000019483133
H         9.15680682394799   -0.17505775647211   -0.00000018995159
