38
 energy: -59.382240595930 gnorm: 0.000747909107 xtb: 6.2.3 (830e466)
C         2.31049827986130   -0.49875719846187   -0.71389738467392
C         2.32522098009338    0.89370819048919   -0.25636062704142
C         1.16041911630430    1.46964609268093    0.16377591709017
C        -0.05508505436072    0.73616770439153    0.16509131431267
C        -0.02209277477019   -0.60122912336447   -0.26590762847411
O         1.13498942351986   -1.17178598932332   -0.68571935604034
C        -1.17024839579933   -1.37666844829041   -0.29490804003552
C        -2.39035959518299   -0.84675812634379    0.11574462236168
C        -2.42755226650214    0.49537957205093    0.53780196965871
C        -1.29148568080771    1.26307126087861    0.56431651128524
O         3.28884501530425   -1.08946628918305   -1.11584373792118
C         3.59458441790996    1.56546487943398   -0.28564185269169
C         3.88221859381158    2.85954235075600    0.08370435009447
C         5.23690253188756    3.18770127425835   -0.07093718758294
C         5.96774405801666    2.14519769648824   -0.55547379356697
S         5.02181448063598    0.74260017787828   -0.83573453271527
N        -3.53897551899972   -1.64370795283551    0.04193899977823
C        -3.71178237070170   -2.66215765927288    1.07239449756105
C        -2.54268026057581   -3.62092599391437    1.23791374012747
C        -4.77937408028678   -0.95241459529387   -0.27409075924048
C        -5.67437574989882   -1.80937723930936   -1.16792529196126
H         1.14142608120405    2.49498918332518    0.50152453924798
H        -1.10254164199302   -2.38382518782107   -0.66783955487709
H        -3.35999535071364    0.92380993531566    0.87211926188309
H        -1.33327951094321    2.28685448878006    0.90586309138660
H         3.14602090257427    3.55055444637404    0.45417459387541
H         5.64665990248356    4.15342868599598    0.16770248569345
H         7.01942234044972    2.12565273548674   -0.76467749404934
H        -3.91771979048237   -2.17820710949914    2.04405353837761
H        -4.59474875650028   -3.24212263909803    0.79739712854586
H        -1.64951796243579   -3.10427621805038    1.57846577339584
H        -2.32730843064158   -4.12842197194598    0.30179636303771
H        -2.80906995108444   -4.36941326707517    1.98120637600241
H        -5.33288473881974   -0.66520012599481    0.63411350997825
H        -4.52420191394576   -0.04575426143546   -0.82595200246599
H        -6.05981725030338   -2.67777640902390   -0.64093689966180
H        -5.11298267553636   -2.14987227177161   -2.03359137793005
H        -6.52022640277083   -1.21757059727739   -1.50829106276782
