68
 energy: -111.798871784974 gnorm: 0.000677914914 xtb: 6.2.3 (830e466)
C        -1.77764262929545   -0.52685748371265   -0.20086305868042
C        -0.71434821267251    0.43743263730912   -0.32006317307789
C        -0.77994106112793   -1.61450627441244   -0.10083229861382
C         0.28366532912891   -0.59970771742393   -0.26586269363008
C         1.67226981261750   -0.68712377538201   -0.41365614463172
C         2.32454589126724   -1.89965702272337   -0.36512464558179
C         2.52065186891643    0.45610095058903   -0.63986267019002
C        -3.17532573338886   -0.51565559282177   -0.26411550866750
C        -3.95321469150709    0.68656904575627   -0.42997190877304
C        -3.90671211692628   -1.68064180189108   -0.18527929063421
O        -0.67436961998772    1.67778342654535   -0.44123890057705
O        -0.81757511342265   -2.81059845160783    0.04319904428543
O         1.99530506796703    1.67948303851243   -0.68567112572043
C         3.89906040037843    0.29209992044608   -0.81497877521486
C         3.63246454979015   -2.14936541114045   -0.50951554121055
C        -5.23461506971050   -1.83755192578301   -0.26386725335569
O        -3.34788133066075    1.87216679519267   -0.48317546261921
C        -5.34654477586885    0.61965552121674   -0.53719877561321
C         4.47604009168365   -1.01058063821351   -0.75688783604465
C         4.05193632648539   -3.66589942883429   -0.39212730438067
C        -6.00806729124105   -0.64172606724481   -0.46772570350058
C        -5.75283920928366   -3.32163061437073   -0.12599546024381
C         5.46825400390750   -3.48277684327634   -0.62246850981409
C        -7.15875977012492   -3.04222042847383   -0.31923390825514
C        -7.83946213036121   -2.02846888173624   -0.49104771295896
C         6.51202530487344   -0.06125021137467   -1.15621808950450
C        -7.99059380578770    0.44851956112881   -0.76650935127176
C         6.02096915237444    1.06726479665002   -1.20304710118305
C        -7.42510573158287    1.54143461394144   -0.81964296219234
C         4.69462119878097    1.64304759562153   -1.07649389859210
C         4.24467565186643    2.31773850071114   -2.37311809330883
C        -6.05976595509165    2.02615054549735   -0.73721688126620
C        -5.85420185547919    2.93847683366027    0.47263283672273
C         3.70146549086154   -4.18370790639666    1.00059134191044
H         2.62744248376919   -4.10502400287773    1.15258766511170
H         4.20790049323919   -3.59961058267293    1.76592033491715
H         3.99901884299894   -5.22525697504239    1.09896790933722
C         3.33599557667727   -4.47335821463751   -1.47200155376090
H         3.61688764378421   -5.52192865595952   -1.40437302868329
H         3.59335438871270   -4.10338972609076   -2.46213577012208
H         2.26100238227845   -4.38323139367636   -1.33273679857875
C        -5.12095727750069   -4.18096007724990   -1.21791845742846
H        -5.37581598889700   -3.79799399054425   -2.20373642760379
H        -5.47260782086375   -5.20699093654964   -1.13756486260665
H        -4.03908752672483   -4.16534524717083   -1.10505573629214
C        -5.40240841763238   -3.85456570969156    1.26126498877274
H        -5.85088591557828   -3.23525714787241    2.03507756858651
H        -4.32214081705672   -3.84627231380839    1.38687788052484
H        -5.76506798247610   -4.87382715413531    1.37298776514236
H        -2.35449660903255    1.83939054987415   -0.44940778990304
H        -6.45769945238042    3.83532215919941    0.35234118006758
H        -4.81321559346095    3.22991666517070    0.56027683411415
H        -6.16083966009403    2.43059899896356    1.38457876230597
C        -5.61998339301845    2.70381990619712   -2.03573253207161
H        -4.58109256425200    3.00980248191631   -1.97708899049409
H        -6.23281231119340    3.58658078872636   -2.20355438894373
H        -5.74614086151760    2.02599702785012   -2.87739128226887
H         4.89599799129169    3.16335511188120   -2.58210159766782
H         3.22592884582310    2.67910213093929   -2.28407516016856
H         4.30401955355928    1.61731614931559   -3.20357677316786
C         4.60210247635048    2.59573528423055    0.11601302782437
H         5.27328537239522    3.43655035437129   -0.04423285736484
H         4.89459578840524    2.08465764569726    1.03073964734573
H         3.59200192325748    2.97452088503467    0.22728700624752
H         1.00728205277634    1.71785123164205   -0.57909226363328
N         5.87858170796265   -1.22292630926234   -0.93900862248063
N        -7.42760275774810   -0.75663234995276   -0.59546395829444
C         6.20618338876812   -2.51920388976920   -0.83957490237075
