6
 energy: -7.071370271998 gnorm: 0.000796866809 xtb: 6.2.3 (830e466)
P         1.57229104382883    0.60718346349782   -0.04803267838131
P        -0.20454320116852   -0.60632075150330   -0.02437210265648
H         2.20798142100428   -0.13675993570244    0.94712512616957
H         2.18114102421808   -0.13677588485946   -1.05985804598862
H        -0.81312840033976    0.13634250941952    0.98805969661477
H        -0.83999188754290    0.13633059914787   -1.02013199575792
