8
 energy: -27.114973875943 gnorm: 0.000395532243 xtb: 6.2.3 (830e466)
C        -3.53071980497024    4.12343595731684    0.11022174982032
C        -2.23239924158379    4.98198810204959    0.01119142571625
O        -1.14218431546992    4.55406479938740    0.22454166548338
O        -2.54719736638934    6.21140827491024   -0.34006247358083
F        -4.38744460696009    4.64561473594112    0.99327254947309
F        -3.26280814332833    2.87828149068204    0.49012286955410
F        -4.15552959267452    4.06574854931623   -1.07060730981448
H        -1.76263692862374    6.78178809039657   -0.41868047665189
