32
 energy: -38.116206106921 gnorm: 0.000195501917 xtb: 6.2.3 (830e466)
C         1.09115070876503   -0.07700912411847    0.01341605971821
C        -0.12642076807987   -0.07838935927483    0.01579195060162
C        -1.47246611081138   -0.07940229361971    0.01736751291583
C        -2.69282618929261   -0.08008299518032    0.01675544614249
C        -4.03884515439429   -0.07878137269319    0.01500839019681
C        -5.25635262083541   -0.07676073229625    0.01290758827015
Si        2.94484587055202   -0.07156534359042    0.00536003278796
C         3.54193063610791   -1.61213369630431   -0.94578246300499
C         3.53194199343888    1.52279219899608   -0.85950425982922
C         3.55107196791329   -0.11931779438137    1.81219538940022
Si       -7.11005083582391   -0.07077524266344    0.00481220852531
C        -7.71141060823804   -1.81663479399846   -0.46938002969457
C        -7.71357040537159    0.39739370611611    1.75153862056699
C        -7.69567083639004    1.21380779726666   -1.27642635430930
H         3.19037685646845   -2.52597807307607   -0.47609508176459
H         4.62681272935615   -1.65731621065373   -0.98241379811032
H         3.17816100362441   -1.60891035689543   -1.96899807663446
H         3.17575715246020    2.40712097739740   -0.33949940729731
H         3.16677913123592    1.57420957333337   -1.88093517659019
H         4.61648704348966    1.57627131229746   -0.89472477950482
H         3.19177167554798    0.73959443827264    2.37119633821717
H         4.63625805722598   -0.11529529885210    1.86438440575293
H         3.20061716130454   -1.01183011228473    2.32200904204847
H        -7.35003617251036   -2.10443518928986   -1.45217201084226
H        -8.79643852006523   -1.86815881822509   -0.48971408335949
H        -7.36008792106167   -2.56048889269603    0.23953092223344
H        -7.35352881481367    1.37968658990944    2.04269483931964
H        -7.36215618312839   -0.31342769234417    2.49352557522425
H        -8.79866884742092    0.41637732678877    1.80209052604903
H        -7.33488087910131    2.20813628506521   -1.03057024028055
H        -8.78016872673321    1.25932781072695   -1.32243150673743
H        -7.33418239341836    0.97098537626793   -2.27124758001109
