4
 energy: -11.273430455747 gnorm: 0.000175426319 xtb: 6.2.3 (830e466)
As       -4.97312430700807    1.92156760790147   -0.00000047952886
As       -2.87613029446002    3.26826174706234   -0.00000058040181
S        -1.44182066156506    1.78982619011522    0.00000054248873
S        -6.40746473696685    3.40012445492097    0.00000051744194
