13
 energy: -24.429931602229 gnorm: 0.000954250778 xtb: 6.2.3 (830e466)
C         4.06867302218553   -2.72146059455426   -0.00000000209148
N         4.01806416098511   -1.36164379859428    0.00000012083255
C         2.72377962742238   -1.12574669360258    0.00000003266541
N         2.02940191875754    0.02658067913597   -0.00000000832526
C         0.67776062573186   -0.04380956680304   -0.00000002459365
N        -0.00373223549471   -1.14503462537558    0.00000004959745
C         0.62113426776801   -2.33504014212252    0.00000002026789
C         1.99113458585542   -2.39296971420457   -0.00000002571866
N         2.92590330902151   -3.37347309351575   -0.00000013176086
H         5.01520810544141   -3.22857009017534   -0.00000000855183
H         2.52268573205807    0.91258289445898   -0.00000002397372
H         0.13478179638478    0.88974550735382   -0.00000005072631
H        -0.01524491611692   -3.20703076200087    0.00000005237849
