14
 energy: -19.130434990070 gnorm: 0.000152283426 xtb: 6.2.3 (830e466)
S         2.18474069198255   -2.63559298795015   -0.73244334552513
S         0.63237501963744    0.09359873361143    0.78064336118606
C        -0.16023087776645   -1.36546406831922    0.02769944582250
C         0.64713697546446   -2.62764546370561    0.24721202122795
H        -0.29784335707057   -1.16750104455045   -1.03632806263105
H        -1.13393229352902   -1.44493556196416    0.51096240490345
H         0.08898210945578   -3.50212251458654   -0.08701297881175
H         0.91241090376637   -2.74610852643951    1.29881908075473
C         2.97734661960669   -1.17653022553768    0.02050054347812
C         2.16997867909430    0.08565114526170   -0.19901207086259
H         3.95104818245312   -1.09705871191129   -0.46276227378905
H         3.11495895888175   -1.37449317622295    1.08452805760341
H         1.90470488172086    0.20411420218321   -1.25061914952275
H         2.72813350630273    0.96012820013120    0.13521296616609
