15
 energy: -27.899931965880 gnorm: 0.000601280002 xtb: 6.2.3 (830e466)
N        -2.14941567259190   -0.08814631390156   -0.00151257578643
C        -0.91732026292712    0.49562847929851   -0.00708533539999
C        -0.00013557221120   -0.57017731177669   -0.02558164978121
N        -0.67744762551295   -1.76475170579703   -0.03095033689347
C        -1.93116646754909   -1.43835981228711   -0.01523349134075
C         1.36165387257452   -0.21778504915460   -0.03638724701485
N         1.67962432446410    1.07908988766537   -0.03104883891938
C         0.71157247872624    1.98176646922133   -0.01331192931675
N        -0.59336885525516    1.78825020393655   -0.00032813171976
H         1.03670540191682    3.01361446811220   -0.00997197912037
N         2.35066210291700   -1.12740918168234   -0.04345254498010
H        -3.03283717921189    0.39248526488373    0.01056343131207
H        -2.73596799716479   -2.14720734349275   -0.01483202386740
H         2.12147632027611   -2.10355116657528   -0.08055071558162
H         3.30296513154933   -0.81314688845033   -0.08151663158998
