21
 energy: -29.584667828647 gnorm: 0.000353863125 xtb: 6.2.3 (830e466)
Fe        0.08862053263273    0.37580274195648    0.15174651531759
C         1.65051006612518    0.67254272426062   -1.30593264374165
C         2.10873603050929    0.17491785671432    0.87892493177217
C         1.44597964392880   -0.71392472658978   -1.12155161028456
C         1.72905841664644   -1.02154103423901    0.22887277903765
C         2.06003151727959    1.22191594145763   -0.06959625379589
C        -1.32186962170230    1.78201284611620    0.97739208883294
C        -1.71588275036423    1.45168688937922   -0.33940053440251
C        -1.34311448371587    0.59815090434194    1.74952427316776
C        -1.98031427511307    0.06376222065732   -0.38113748226972
C        -1.74998184289518   -0.46364608322072    0.90983544618161
H         1.57512353268663    1.20386533027891   -2.23927295428984
H         2.44311893408259    0.26164033636767    1.89871562129371
H         1.18749757343499   -1.42237973324686   -1.89016050646492
H         1.72371932807861   -2.00485978795205    0.66787375961926
H         2.35110289842534    2.24413755492405    0.10203873689465
H        -1.11091178952741    2.77202045772765    1.34439679452253
H        -1.85667773370373    2.14643388394415   -1.14978638290126
H        -1.15073908340023    0.52944228986970    2.80664371090631
H        -2.35745169530614   -0.48230138479373   -1.22895396543407
H        -1.92165519810196   -1.48128922795357    1.21614767603831
