61
 energy: -97.342501552697 gnorm: 0.000335432584 xtb: 6.2.3 (830e466)
Ru        5.25107042401296   -0.02048349941511   -0.13639654654191
N         3.53191752652926   -0.21812030407616    0.86848742631813
N         4.46397445338837    1.55361581351455   -1.08789711650486
N         6.20998184647176   -1.49093750639288    0.82240325859221
N         4.35876009787895   -1.40218290926104   -1.27666936680571
N         5.98933420706500    1.45698261954357    0.99904868053041
N         6.98249910946395   -0.00225716115824   -1.14615337930983
C         2.65395022574171   -1.13686243882482    0.33723051246497
C         4.83282018973690    2.78022176874365   -0.57966315400571
C         7.50120185170408   -1.71461768850138    0.39613555257406
C         3.10047529383227   -1.77310213905852   -0.85690121960333
C         5.65932472079284    2.72642638797736    0.57903342933812
C         7.92112724730573   -0.90484999394443   -0.69772448811935
C         1.97872126166727    0.23532375740247    2.62818203465001
C         3.18854991583697    2.65312904191118   -2.78566917369573
C         6.46870941121212   -3.20555865870209    2.46902387587883
C         7.25715058522272    2.39131945414709    2.79779245617660
C         8.52866952722849    0.77138850187807   -2.79751523581628
C         8.30365486751460   -2.68065892831908    1.03845451295599
C         9.18224412554671   -0.98745065552258   -1.32475262271499
C         1.08302502052592   -0.71909315931788    2.11714530432409
C         7.79861047100475   -3.42396636648482    2.06983101806975
C         6.91439118256576    3.69342808051289    2.39598848853271
C         9.49148586734230   -0.15705975844856   -2.36697801880263
H         9.32008691492362   -2.82694776833959    0.70999702545542
H         9.90076214569372   -1.71099744360572   -0.97466662323319
C         4.39996480123021    3.96753004078729   -1.20642856909084
H         8.40354933939369   -4.16509625709757    2.56923613859835
H        10.45400698241746   -0.20958007017338   -2.85230071156555
C         6.11929546045948    3.85221779045546    1.29417039082720
H         5.83822899786016    4.83941725733463    0.96437999958013
H         7.27369564954446    4.54747265282344    2.94938761377014
C         7.30917693536584    0.79713509742176   -2.16110413911466
H         8.73425659105190    1.44952625907983   -3.60925719010037
H         6.54578259475942    1.49497830881043   -2.48630858323352
C         1.42470621902775   -1.39647039735459    0.97845903526427
H         0.14517286122753   -0.90931735462894    2.61616294411287
H         0.75715319152234   -2.13476163947170    0.56402945221665
C         2.34984507791188   -2.70559826086666   -1.60303516361114
C         5.73787776805908   -2.23696537857764    1.82166482254841
H         4.71530613630460   -2.04053166110318    2.12404930074657
H         6.02741451784668   -3.77844007319331    3.26791020219446
C         3.58451766563313    3.91257350548822   -2.30339609927867
H         4.71948661471364    4.91952061594475   -0.81399064385812
H         3.24812096858983    4.81429335734110   -2.79162736040343
C         3.65860929259046    1.52765592181686   -2.15018662727624
H         2.53508475350084    2.56491739063437   -3.63792178127963
H         3.37913902750232    0.54577187254511   -2.51548576976225
C         3.17221175180517    0.43451099304138    1.97316916353262
H         1.74309501115818    0.79912485689720    3.51569632504939
H         3.88664157643732    1.15418617998829    2.35719623993144
C         2.87467153214149   -3.26730083504326   -2.73490953789299
H         1.35757795207926   -2.97015471784596   -1.27465625798834
C         4.85103102666622   -1.97027985560464   -2.37698248962452
C         4.17065285771012   -2.89741396579386   -3.13239682088388
H         5.84698415015471   -1.65842858139982   -2.67134932817346
H         4.62550006314615   -3.32461893083739   -4.01085298030644
H         2.30926473605846   -3.98129968170776   -3.31393771894553
C         6.76732571952727    1.32919545977009    2.07340403267427
H         7.88781160745885    2.22193836618204    3.65490360088467
H         7.00686207894139    0.31527268808849    2.37362187975972
