34
 energy: -53.277660434209 gnorm: 0.000248868273 xtb: 6.2.3 (830e466)
C         0.52545406566047   -0.46876843540942    0.00004646498907
C        -0.52545567486843    0.46884485305717    0.00004798346548
C         1.86454119100010   -0.02851458308210   -0.00002881574150
C        -1.86454248391711    0.02859090575188    0.00001911614682
C         0.22856386758138   -1.86660738315935    0.00008401435514
C        -0.22856568900831    1.86668392166333    0.00004146157453
C         2.15285006658859    1.36339279218141   -0.00007970253394
C        -2.15285095971930   -1.36331627584694    0.00001168906625
C         2.92661190084352   -0.96965868556901   -0.00008762030883
C        -2.92661314028197    0.96973494942093   -0.00003636714242
C        -1.08690287510134   -2.28264824249214    0.00007741899183
C         1.08690162193801    2.28272508992993   -0.00001006479554
C         1.32224890185751   -2.78942858377177    0.00009282709099
C        -1.32225083094837    2.78950509694883    0.00005470162630
C         2.60318852618748   -2.36340486256633    0.00000100316124
C        -2.60319018281955    2.36348108311577    0.00000759579277
C         3.49770693911459    1.77467419154760   -0.00022434680262
C        -3.49770741844472   -1.77459750708683   -0.00008736595161
C         4.23863769181950   -0.51222145501796   -0.00024200244010
C        -4.23863838933457    0.51229770379293   -0.00014469773812
C         4.51596263853208    0.85054880357711   -0.00031943797272
C        -4.51596301763807   -0.85047233049236   -0.00017967338171
H        -1.31272295572263   -3.34040131429989    0.00009624131932
H         1.31272179687765    3.34047805816396   -0.00002461481957
H         1.09062881904951   -3.84542444326768    0.00015589824712
H        -1.09063063717790    3.84550097458536    0.00008411233683
H         3.42073074912529   -3.07085684701325   -0.00001293455713
H        -3.42073225595025    3.07093317305211   -0.00000385463919
H         3.71959470093331    2.83231773919756   -0.00027793181481
H        -3.71959534512096   -2.83224123534571   -0.00010783241728
H         5.04930628216135   -1.22694157140913   -0.00031274331949
H        -5.04930719981239    1.22701792470006   -0.00021274700626
H         5.54426149861626    1.18287387987883   -0.00045640638811
H        -5.54426220202071   -1.18279738473490   -0.00028136839273
