40
 energy: -62.836946822863 gnorm: 0.000392546129 xtb: 6.2.3 (830e466)
C         1.04584833095324    0.82547843715404    0.00000529813234
C        -1.04586048501903   -0.82547915436798    0.00000503605329
C         1.31524421428208   -0.55780615130055   -0.00000889562315
C        -1.31525604755417    0.55780531617651   -0.00001293010170
C        -0.22542575866074    1.44380662534908    0.00001100149040
C         0.22541311426245   -1.44380767963932    0.00001715953491
C         2.25666196572201    1.57125032600653    0.00000775673665
C        -2.25667387891892   -1.57125073680251    0.00000547149387
C         2.76515356695280   -0.70176906180723   -0.00005029579182
C        -2.76516511819995    0.70176862621824   -0.00005079638527
C         3.33879711171961    0.59761974924507   -0.00003298666896
C        -3.33880883151028   -0.59761967831020   -0.00004075644703
C        -0.22729347160157    2.86132567584311    0.00004143152538
C         0.22728112974039   -2.86132708456284    0.00005810563978
C         2.20836088292432    2.93734304932346    0.00003635864395
C        -2.20837352160229   -2.93734327385779    0.00004091125261
C         3.59342789826842   -1.81035454568852   -0.00012607536796
C        -3.59343914334703    1.81035391662842   -0.00011418313057
C         0.94595612973291    3.56688032859612    0.00005671039443
C        -0.94596875228412   -3.56688101507501    0.00007270594464
C         4.70762752502151    0.76994024920986   -0.00007566770232
C        -4.70763891310590   -0.76994042633165   -0.00008634706322
C         4.96989577190769   -1.62511417809358   -0.00017472365243
C        -4.96990743107633    1.62511392467438   -0.00016179921377
C         5.52245130592276   -0.35500700432192   -0.00014607893563
C        -5.52246301811801    0.35500697390477   -0.00014843504153
H        -1.16586766075044    3.39200779214437    0.00005910654939
H         1.16585528158460   -3.39200917761958    0.00008745562592
H         3.10584303678181    3.53841091655095    0.00004498933245
H        -3.10585570912400   -3.53841105513454    0.00004700908941
H         3.19363842828793   -2.81238198391335   -0.00015689399260
H        -3.19364981480667    2.81238167490635   -0.00014164500801
H         0.91221692886090    4.64736316559899    0.00008352728853
H        -0.91222941428075   -4.64736381503465    0.00010883199302
H         5.13924167797249    1.76022181182992   -0.00006036459743
H        -5.13925338574357   -1.76022218329830   -0.00007073412740
H         5.61994763098526   -2.48818985516403   -0.00023997402686
H        -5.61995966319052    2.48818958239504   -0.00022118181778
H         6.59639562422282   -0.23868289073643   -0.00018529666810
H        -6.59640753721170    0.23868280930477   -0.00018280535744
