32
 energy: -53.211712898222 gnorm: 0.000739117248 xtb: 6.2.3 (830e466)
O         7.56186992493110    0.31396848949729   -0.44818611594076
N        12.30445620542572   -0.07187984073913   -0.34556610626197
N         2.85176579290940    0.77517343647458   -0.60842777068738
N         7.32040320934664   -2.45987971478165    0.08147573661299
C        11.06232974863726   -0.64515477381763   -0.19407093229980
C         3.94105088280014   -0.04176205838949   -0.40487576625604
C         8.66576872950829   -0.47384417920563   -0.27921185772501
C         6.34260375527753   -0.29814029494962   -0.34823836887425
C         8.52683705259335   -1.85974342003230   -0.01396616651177
C         6.24694539500343   -1.68151245929483   -0.08619351077432
C         9.90633244236421    0.12018396669700   -0.36540776468165
C         5.21613379165946    0.49471585355293   -0.49705851778058
C        10.93847832811405   -2.01541523650897    0.06755743051160
C         3.78118839649583   -1.44098754234822   -0.16639726767342
C         9.70222729779217   -2.60843420889912    0.15509359177920
C         4.93336804329730   -2.25144039929727    0.00046735687495
H         9.97259060875281    1.17863204887432   -0.56814837198264
H         5.34971569822680    1.54987094097053   -0.68612750116478
H        11.83366954869593   -2.60576253369088    0.20022053997605
C         2.51977889928061   -2.06459264531013   -0.08906111387152
H         9.60182533623498   -3.66219089224955    0.35885972955582
C         4.78659650544061   -3.62359058485558    0.24692979043672
H         3.03226381842927    1.76495274958520   -0.56263580874830
H         1.97430422044290    0.48758572217413   -0.20934753963743
H        12.35649354584394    0.93031925059553   -0.27103646252341
H        13.08526522596786   -0.57370880688597    0.04372369049900
C         3.54418962034105   -4.19815988688101    0.32354540962725
C         2.40327822775360   -3.40900090039825    0.15011394275141
H         1.62108705481604   -1.48159208668350   -0.23279971813901
H         1.42459581085868   -3.86375698457114    0.20480380326560
H         5.68745603641943   -4.20419807632652    0.36798045497523
H         3.43927084633976   -5.25628493230506    0.51220518466834
