42
 energy: -66.003002604117 gnorm: 0.000521998900 xtb: 6.2.3 (830e466)
O         3.34886552899630    0.05822137147777   -0.38909531714469
O         1.00642743168451   -3.98914595813486   -0.15548259471719
N         5.73035061144262    4.16537765355255   -0.71131907749942
N         5.74458965009827   -1.33719533708430    0.07753951285223
C         5.72542830759618    2.81833919914530   -0.49774668655990
C         4.53696666537228    0.71462550421982   -0.33996860170125
C         4.60894788905788   -1.97172357580248    0.02654424441331
C         5.73571787116970    0.00617190180286   -0.10741775261520
C         6.96464545936521    4.91305172917499   -0.80589414444137
C         4.49757117868861    4.92590920256286   -0.69991084241247
C         4.53088918082137    2.08205799671851   -0.52269586621507
C         4.57245072513904   -3.40723016864623    0.20961314055614
C         3.34829762588061   -1.29594750553980   -0.21603381458501
C         6.92252802298522    2.10040883035637   -0.26130552269128
C         3.35202681152445   -4.09567214517582    0.14668091100006
C         6.92532916373365    0.74456482756164   -0.07363235914013
C         2.16855467258398   -1.95830914190409   -0.27748075298434
C         2.07353627639690   -3.38960715594285   -0.10265095764226
C         7.51518024348549    5.36584447689409    0.54808705004129
C         3.88350115589260    5.05145332030658    0.69510970519918
C         5.75090298398660   -4.11942463299199    0.44630636672908
C         3.33914457684592   -5.47781205758021    0.32085519040515
C         5.71891027414411   -5.48715678359051    0.61594248124079
C         4.50983026992862   -6.17064987982388    0.55316467994265
H         6.77719090037479    5.79269692634154   -1.42826233904833
H         7.70839053830652    4.30633826700734   -1.32748009708246
H         3.77679779847150    4.46647049486531   -1.38326181082352
H         4.71694632393473    5.92352296859027   -1.08562039606839
H         3.57425310388906    2.54216114813839   -0.69920151675381
H         7.86580179027737    2.61681066462926   -0.21025837841383
H         7.84537866335185    0.21332972081035    0.11085425684523
H         1.25409958963615   -1.41500547010419   -0.46189401284900
H         8.48807345413512    5.83109865610128    0.41204853032536
H         7.62234747170690    4.51903891577933    1.22099368440330
H         6.85128438259161    6.09066344761362    1.01154142733978
H         4.55938812149184    5.57448292357580    1.36615537976112
H         3.67820214071604    4.07084751989582    1.11543629618018
H         2.95216469855872    5.60872117855811    0.63790419684567
H         6.67835877132090   -3.57015490544642    0.49099141585342
H         2.38687904265352   -5.98460541193629    0.26742152321778
H         6.63556030191010   -6.02924262735411    0.79760335770754
H         4.48801032985224   -7.24232608862436    0.68580949053314
