29
 energy: -58.088023936487 gnorm: 0.000714250661 xtb: 6.2.3 (830e466)
S         2.09262109077739   -0.77862835141907   -0.57821562661906
S        -1.75133567090416    0.87025966891364    0.73902687227282
C         0.86431804392682    0.14594851591760    0.22422078574107
C        -0.51669923398840   -0.05747008027320   -0.06704082559178
C         1.41207182785035    1.04080629076346    1.12172944937137
C        -1.07510661376083   -0.94232143644154   -0.95625697949836
C         2.80342597273326    0.98685854224841    1.16712720244710
C        -2.47810385440420   -0.87669558270737   -0.99079205538978
C         3.32870299463335    0.04982563023894    0.30449802532587
C        -2.98105233119204    0.05209875657243   -0.13262825802479
H         0.81191286993076    1.70550080354689    1.71707433019642
H        -0.48475653094847   -1.61051129216662   -1.55743652690570
H         3.42405155904906    1.59809968493134    1.79655701609016
H        -3.08967584634323   -1.49269044498943   -1.62493907663665
C         4.72421065015708   -0.25099317110454    0.10838705959969
H        -4.00676402583747    0.30890255221722    0.04258624471537
O         4.86691429000281   -1.23787128072924   -0.84784331475265
O         5.66559648142601    0.24981067348475    0.66179230999977
N         6.18310029089646   -1.56974703759078   -1.10932247765589
C         6.96017963159385   -0.80859222597107   -1.96942352325601
O         6.55556345455760    0.10362905570700   -2.62845802374858
C         8.35541910000279   -1.38643781388297   -1.89392683850808
H         9.04627304304366   -0.59012694559677   -1.61586614342334
H         8.64612735762661   -1.74138704964284   -2.88305138719972
C         8.28761480966154   -2.50263462526264   -0.85309961300936
C         6.85923298299329   -2.51717693898673   -0.35592628830104
H         8.95054160646572   -2.33249663561597   -0.00453226384632
H         8.52794502902588   -3.48353470237200   -1.26446651536856
O         6.36403102102446   -3.19702455978877    0.49406644197600
