32
 energy: -49.151178268154 gnorm: 0.000417793226 xtb: 6.2.3 (830e466)
O         0.14090647743494   -0.90925173584096   -0.02350416648719
N         4.88638848230488   -0.76110104169752   -0.00437312257326
N        -4.50807152397622   -1.36522040759074   -0.03669308399516
C         1.22383443375222    1.25041667718023    0.00444958392808
C        -1.18824348969094    1.13338691793586   -0.00475647170324
C         1.26490051855233   -0.15968705145802   -0.01462514903621
C        -1.09123272911740   -0.30672117740558   -0.02031892219566
C        -0.04724655790241    1.88607037557890    0.00921958416988
C         2.47308533080257   -0.83754961412645   -0.03194913514185
C         2.44205018461806    1.94360686623552    0.01119759763418
C         3.67703275073380   -0.13233078194852   -0.02706186218547
C        -2.50729002799998    1.69018920591982   -0.00671865952003
C        -2.19125975870222   -1.09330637614397   -0.03192610653536
C         3.63743371373567    1.27521203977197   -0.00514780221979
C        -3.51854267184462   -0.53863872695501   -0.02908701673567
C        -3.60520900862193    0.91384570753579   -0.01869386275047
C         5.05258012197938   -2.17771389900584   -0.20201474905180
C        -5.86632188262770   -0.91087248566881   -0.03232576163153
H        -0.09645732204162    2.96542480739260    0.02222677826187
H         2.44927536595711   -1.91377261530494   -0.05183745497837
H         2.42279173293046    3.02330778031384    0.02533151228239
H        -2.58703781180713    2.76934626983237    0.00084469183095
H        -2.09796775336756   -2.16648021958979   -0.04226478997557
H         4.56797110500067    1.82422258227673   -0.00140993995155
H        -4.58578439894362    1.36660379569071   -0.02211230391865
H         5.68885809017831   -0.18051970709226   -0.18589932076012
H         4.67841782978485   -2.50511088948515   -1.17871557911140
H         4.52046555441148   -2.72808389633962    0.57572591453304
H         6.10986504235517   -2.42213924125814   -0.13268420669774
H        -6.10832880600091   -0.32316452188927   -0.92548685356334
H        -6.09875666339682   -0.29889997132339    0.84706280735389
H        -6.50530632849074   -1.79468866554039   -0.01745214927492
