31
 energy: -45.985858435827 gnorm: 0.000307891447 xtb: 6.2.3 (830e466)
N        -0.82796674433184    1.48092808593956   -0.01489927819142
C         0.15869845948922    0.52231430378700   -0.01499585317480
C        -0.45444929729569   -0.77177935814088   -0.00559454463797
C         1.52409113572961    0.65620846748713   -0.02241200610839
C        -1.87502842361395   -0.54481643776779   -0.00087452713894
C        -2.05418269329017    0.85722804965632   -0.00746455960051
C         2.32247226980939   -0.50233572841140   -0.02002312142921
C         1.71642942920862   -1.79398060765318   -0.01019680938134
C         0.31491271729875   -1.90689125732710   -0.00314825873044
C        -2.97664455613682   -1.38669918492794    0.00772905832567
C        -3.32286689295529    1.41710845623092   -0.00601578010590
C         2.54882041135050   -2.93502533873570   -0.00805630463422
C        -4.23947690025694   -0.82382011263156    0.00949074053176
C        -4.40687322892063    0.55762789710348    0.00262626324740
H        -0.14150356458147   -2.88588503413915    0.00398314443908
C        -0.64930518097654    2.90398223164328   -0.02306699325617
H         0.41209461665310    3.13833906981006   -0.00838980963953
H        -1.12017213874702    3.35465632580684    0.85519642811813
H        -1.09348561511294    3.34300729588863   -0.92118666716339
C         3.73288244639126   -0.42015980282768   -0.02738502601046
C         4.50600450099037   -1.54503226261076   -0.02509335060089
C         3.90861089279880   -2.81689493088022   -0.01528527214310
H         4.19133144084776    0.55918926883876   -0.03492625751106
H         5.58358068359825   -1.46614936056185   -0.03080683184313
H         4.53497128843437   -3.69704198830415   -0.01356707960957
H         2.08199148595972   -3.91016280583502   -0.00053834970173
H         2.00791877498044    1.62233927511065   -0.03032032586456
H        -5.11095640109375   -1.46140884277486    0.01609074965844
H        -2.84701855013381   -2.45847409252921    0.01283334324725
H        -3.46601168983935    2.48709230621101   -0.01174282833248
H        -5.40594867625392    0.96851611254483    0.00390010724144
